3
-74.96309122 
O   -5.90075300000000e-04   0.00000000000000e+00  -4.52674000000000e-04
H    9.25610245700000e-01   0.00000000000000e+00  -2.48113235200000e-01
H   -9.30743000000000e-05   0.00000000000000e+00   9.58286909200000e-01
3
-74.96038905 
O   -5.00000000000000e-04   0.00000000000000e+00  -4.52674000000000e-04
H    9.00000000000000e-01   0.00000000000000e+00  -2.48113235200000e-01
H   -0.00000000000000e+00   0.00000000000000e+00   9.58286909200000e-01
3
-74.93702733 
O    0.00000000000000e+00   0.00000000000000e+00   0.00000000000000e+00
H    9.00000000000000e-01   0.00000000000000e+00   0.00000000000000e+00
H    0.00000000000000e+00   0.00000000000000e+00   9.00000000000000e-01
