6
-166.69213925588178
C   -2.72407572571000e-01  -2.87615636902000e-01  -1.86544107753000e-01
H   -8.13380808077000e-01  -8.92815705640000e-01  -9.34828864971000e-01
N    6.65388137789000e-01   6.10446009362000e-01  -8.00609532667000e-01
H    9.43358506800000e-01   1.36471837426200e+00  -1.61380307135000e-01
H    3.02929666756000e-01   1.01002350220900e+00  -1.67383500727000e+00
O   -4.05434070656000e-01  -4.12021911313000e-01   1.01540046184200e+00
