6
-74.97123927 -74.97123927 -149.87016120 
O   -5.90075300000000e-04   0.00000000000000e+00  -4.52674000000000e-04
H    9.25610245700000e-01   0.00000000000000e+00  -2.48113235200000e-01
H   -9.30743000000000e-05   0.00000000000000e+00   9.58286909200000e-01
O   -5.90075300000000e-04   2.00000000000000e+00  -4.52674000000000e-04
H    9.25610245700000e-01   2.00000000000000e+00  -2.48113235200000e-01
H   -9.30743000000000e-05   2.00000000000000e+00   9.58286909200000e-01
6
-74.97609021 -74.96516745 -149.92865207 
O    6.63263344957000e-02   0.00000000000000e+00   3.70017822976000e-03
H   -5.26323559596000e-01  -7.69239546413000e-01  -2.93622584729000e-02
H   -5.26323559596000e-01   7.69239546413000e-01  -2.93622584729000e-02
O   -6.63139849331000e-02   8.12112093870000e-18   2.38130083621000e+00
H    4.80887496578000e-01  -5.88917333434000e-17   3.18418752814000e+00
H    5.71563626083000e-01  -6.99963565191000e-17   1.64838293165000e+00
6
-74.96453889 -74.96498998 -149.93143120 
O    3.32152676322000e-02   0.00000000000000e+00  -5.75292965600000e-02
H    3.13374453735000e-01  -3.84573560448000e-01   7.89625062752000e-01
H   -8.40524884286000e-01   3.84573560448000e-01   1.23406672734000e-01
O    2.87643394298000e-02   1.66070998358000e-02   3.38212220623000e+00
H   -8.05161555394000e-01  -4.64921862500000e-01   3.51155930225000e+00
H    3.48650589329000e-01   2.01355121880000e-01   4.28078646886000e+00
