9
-74.97124069 -74.97915970 -74.97124069 -149.87898503 -149.94091507 -149.87898503 -224.77596731 
O   -5.90075300000000e-04   0.00000000000000e+00  -4.52674000000000e-04
H    9.25610245700000e-01   0.00000000000000e+00  -2.48113235200000e-01
H   -9.30743000000000e-05   0.00000000000000e+00   9.58286909200000e-01
O   -5.90075300000000e-04   2.00000000000000e+00  -4.52674000000000e-04
H    9.25610245700000e-01   2.00000000000000e+00  -2.48113235200000e-01
H   -9.30743000000000e-05   2.00000000000000e+00   9.58286909200000e-01
O   -5.90075300000000e-04   4.00000000000000e+00  -4.52674000000000e-04
H    9.25610245700000e-01   4.00000000000000e+00  -2.48113235200000e-01
H   -9.30743000000000e-05   4.00000000000000e+00   9.58286909200000e-01
